Circuit: * C:\Users\marth\Documents\ITBA\Electronica III\tps\tp2-grupo-3\Ejercicio-5\Simulaciones\and_intento.asc

WARNING: Less than two connections to node NC_01.  This node is used by V3.
Direct Newton iteration for .op point succeeded.

Date: Sun Oct 13 21:19:09 2019
Total elapsed time: 0.290 seconds.

tnom = 27
temp = 27
method = modified trap
totiter = 2459
traniter = 2424
tranpoints = 1213
accept = 1174
rejected = 39
matrix size = 41
fillins = 26
solver = Normal
Matrix Compiler1: 4.21 KB object code size  3.2/1.5/[1.1]
Matrix Compiler2: off  [1.3]/1.9/1.5

