Circuit: * C:\Users\Usuario\source\repos\tp2-grupo-3\Ejercicio-8\Spice\Generador de rampa\NE555 Ramp Generator.asc

Direct Newton iteration for .op point succeeded.

Date: Thu Oct 10 01:28:46 2019
Total elapsed time: 0.103 seconds.

tnom = 27
temp = 27
method = modified trap
totiter = 12921
traniter = 12912
tranpoints = 5869
accept = 4959
rejected = 910
matrix size = 21
fillins = 0
solver = Normal
Matrix Compiler1: 680 bytes object code size  0.2/0.1/[0.1]
Matrix Compiler2: 1.34 KB object code size  0.1/0.1/[0.1]

