Circuit: * C:\Users\ellon\Desktop\Rampa\NE555 Ramp Generator.asc

Direct Newton iteration failed to find .op point.  (Use ".option noopiter" to skip.)
Starting Gmin stepping
Gmin = 10
Gmin = 1.07374
Gmin = 0.115292
Gmin = 0.0123794
Gmin = 0.00132923
Gmin = 0.000142725
Gmin = 1.5325e-005
Gmin = 1.6455e-006
vernier = 0.5
Gmin = 3.06744e-007
vernier = 0.666667
Gmin = 7.59426e-008
vernier = 0.888888
vernier = 1
Gmin = 9.33136e-009
Gmin = 1.00195e-009
Gmin = 1.07583e-010
Gmin = 1.15517e-011
Gmin = 1.24035e-012
Gmin = 1.33182e-013
Gmin = 0
Gmin stepping succeeded in finding the operating point.


Date: Wed Oct 09 14:33:14 2019
Total elapsed time: 2.660 seconds.

tnom = 27
temp = 27
method = modified trap
totiter = 3694
traniter = 3112
tranpoints = 1252
accept = 1204
rejected = 48
matrix size = 18
fillins = 0
solver = Normal
Matrix Compiler1: 620 bytes object code size  0.8/0.6/[0.4]
Matrix Compiler2: 1.17 KB object code size  1.0/1.4/[0.5]

