Circuit: * C:\Users\Guido\Documents\GitHub\tp2-grupo-3\Ejercicio-8\Spice\Generador de rampa que si funca\gyrator.asc

Early termination of direct N-R iteration.
Direct Newton iteration failed to find .op point.  (Use ".option noopiter" to skip.)
Starting Gmin stepping
Increasing initial diagonal Gmin to 100
Gmin = 100
vernier = 0.5
vernier = 0.25
Gmin = 34.2672
vernier = 0.125
vernier = 0.0625
vernier = 0.03125
vernier = 0.015625
Gmin = 33.0995
vernier = 0.0078125
vernier = 0.00390625
vernier = 0.00195313
Gmin = 32.9705
vernier = 0.000976563
vernier = 0.000488281
Gmin = 0
Gmin stepping failed

Starting source stepping with srcstepmethod=0
Source Step = 3.0303%
Source Step = 33.3333%
Source Step = 63.6364%
Source Step = 93.9394%
Source stepping succeeded in finding the operating point.


Date: Sat Oct 19 18:22:33 2019
Total elapsed time: 0.470 seconds.

tnom = 27
temp = 27
method = modified trap
totiter = 26730
traniter = 25014
tranpoints = 12508
accept = 12089
rejected = 419
matrix size = 54
fillins = 144
solver = Normal
Matrix Compiler1: 10.25 KB object code size  1.5/1.1/[0.6]
Matrix Compiler2: 7.04 KB object code size  1.0/1.2/[0.5]

