Circuit: * C:\Users\Acer\Desktop\GitHub\ElectroIII\tp2-grupo-3\Ejercicio-8\Spice\Generador de rampa que si funca\gyrator.asc

Early termination of direct N-R iteration.
Direct Newton iteration failed to find .op point.  (Use ".option noopiter" to skip.)
Starting Gmin stepping
Increasing initial diagonal Gmin to 100
Gmin = 100
vernier = 0.5
vernier = 0.25
Gmin = 34.2672
vernier = 0.125
vernier = 0.0625
vernier = 0.03125
vernier = 0.015625
Gmin = 33.0995
vernier = 0.0078125
vernier = 0.00390625
vernier = 0.00195313
Gmin = 32.9705
vernier = 0.000976563
vernier = 0.000488281
Gmin = 0
Gmin stepping failed

Starting source stepping with srcstepmethod=0
Source Step = 3.0303%
Source Step = 33.3333%
Source Step = 63.6364%
Source Step = 93.9394%
Source stepping succeeded in finding the operating point.


Date: Wed Oct 23 15:09:05 2019
Total elapsed time: 0.399 seconds.

tnom = 27
temp = 27
method = modified trap
totiter = 26081
traniter = 24370
tranpoints = 12186
accept = 11731
rejected = 455
matrix size = 54
fillins = 128
solver = Normal
Matrix Compiler1: 9.88 KB object code size  1.5/0.8/[0.5]
Matrix Compiler2: 6.73 KB object code size  0.5/0.7/[0.4]

