Circuit: * C:\Users\Guido\Documents\GitHub\tp2-grupo-3\Ejercicio-8\Spice\Generador de rampa que si funca\gyrator.asc

WARNING: Node NC_02 is floating.
WARNING: Node NC_01 is floating.

WARNING: Less than two connections to node NC_02.  This node is used by J:U3:1.
WARNING: Less than two connections to node NC_01.  This node is used by J:U3:2.
Direct Newton iteration failed to find .op point.  (Use ".option noopiter" to skip.)
Starting Gmin stepping
Increasing initial diagonal Gmin to 100
Gmin = 100
vernier = 0.5
vernier = 0.25
Gmin = 34.2672
vernier = 0.125
vernier = 0.0625
vernier = 0.03125
vernier = 0.015625
Gmin = 33.0995
vernier = 0.0078125
vernier = 0.00390625
vernier = 0.00195313
Gmin = 32.9705
vernier = 0.000976563
vernier = 0.000488281
Gmin = 0
Gmin stepping failed

Starting source stepping with srcstepmethod=0
Source Step = 3.0303%
Source Step = 33.3333%
Source Step = 63.6364%
Source Step = 93.9394%
Source stepping succeeded in finding the operating point.


Date: Wed Oct 16 20:41:34 2019
Total elapsed time: 1.008 seconds.

tnom = 27
temp = 27
method = modified trap
totiter = 26636
traniter = 24830
tranpoints = 12416
accept = 11915
rejected = 501
matrix size = 77
fillins = 284
solver = Normal
Thread vector: 28.1/23.8[2] 1.3/1.5[1] 6.6/2.7[2] 2.0/8.4[1]  2592/500
Matrix Compiler1: 24.06 KB object code size  3.4/1.7/[0.9]
Matrix Compiler2: 11.35 KB object code size  6.1/6.5/[2.1]

